
     RDKit          3D

 51 53  0  0  0  0  0  0  0  0999 V2000
   -1.3204    3.2989   -3.3065 C   0  0  0  0  0  0  0  0  0  0  0  0
   -0.6932    2.4508   -2.3457 O   0  0  0  0  0  0  0  0  0  0  0  0
   -0.7902    1.1298   -2.6381 C   0  0  0  0  0  0  0  0  0  0  0  0
   -1.3285    0.6372   -3.6169 O   0  0  0  0  0  0  0  0  0  0  0  0
   -0.2046    0.3316   -1.5423 C   0  0  0  0  0  0  0  0  0  0  0  0
    1.1010    0.3995   -1.1881 C   0  0  0  0  0  0  0  0  0  0  0  0
    2.0787    1.3032   -1.9192 C   0  0  0  0  0  0  0  0  0  0  0  0
    1.6027   -0.4187   -0.1385 N   0  0  0  0  0  0  0  0  0  0  0  0
    2.9261   -0.1951    0.3561 C   0  0  0  0  0  0  0  0  0  0  0  0
    3.1467    0.7295    1.3876 C   0  0  0  0  0  0  0  0  0  0  0  0
    4.4363    0.9507    1.8732 C   0  0  0  0  0  0  0  0  0  0  0  0
    5.5145    0.2505    1.3323 C   0  0  0  0  0  0  0  0  0  0  0  0
    5.3067   -0.6711    0.3064 C   0  0  0  0  0  0  0  0  0  0  0  0
    4.0179   -0.8938   -0.1805 C   0  0  0  0  0  0  0  0  0  0  0  0
    0.7776   -1.3932    0.4879 C   0  0  0  0  0  0  0  0  0  0  0  0
    1.4214   -2.3395    1.4863 C   0  0  0  0  0  0  0  0  0  0  0  0
   -0.5333   -1.4900    0.1608 C   0  0  0  0  0  0  0  0  0  0  0  0
   -1.4439   -2.4930    0.7488 C   0  0  0  0  0  0  0  0  0  0  0  0
   -2.0438   -3.3268    0.0890 O   0  0  0  0  0  0  0  0  0  0  0  0
   -1.5486   -2.2892    2.0858 O   0  0  0  0  0  0  0  0  0  0  0  0
   -2.4849   -3.1543    2.7266 C   0  0  0  0  0  0  0  0  0  0  0  0
   -1.1914   -0.5962   -0.8676 C   0  0  0  0  0  0  0  0  0  0  0  0
   -2.3580    0.1868   -0.2553 C   0  0  0  0  0  0  0  0  0  0  0  0
   -3.6638   -0.0192   -0.7277 C   0  0  0  0  0  0  0  0  0  0  0  0
   -4.7357    0.6867   -0.1796 C   0  0  0  0  0  0  0  0  0  0  0  0
   -4.5171    1.6052    0.8451 C   0  0  0  0  0  0  0  0  0  0  0  0
   -3.2266    1.8202    1.3242 C   0  0  0  0  0  0  0  0  0  0  0  0
   -2.1521    1.1165    0.7789 C   0  0  0  0  0  0  0  0  0  0  0  0
   -2.3917    3.0825   -3.3681 H   0  0  0  0  0  0  0  0  0  0  0  0
   -1.1953    4.3343   -2.9777 H   0  0  0  0  0  0  0  0  0  0  0  0
   -0.8445    3.1865   -4.2857 H   0  0  0  0  0  0  0  0  0  0  0  0
    2.9579    0.7396   -2.2480 H   0  0  0  0  0  0  0  0  0  0  0  0
    1.6671    1.7486   -2.8287 H   0  0  0  0  0  0  0  0  0  0  0  0
    2.4024    2.1228   -1.2696 H   0  0  0  0  0  0  0  0  0  0  0  0
    2.3086    1.2767    1.8112 H   0  0  0  0  0  0  0  0  0  0  0  0
    4.5995    1.6686    2.6726 H   0  0  0  0  0  0  0  0  0  0  0  0
    6.5188    0.4235    1.7112 H   0  0  0  0  0  0  0  0  0  0  0  0
    6.1475   -1.2162   -0.1144 H   0  0  0  0  0  0  0  0  0  0  0  0
    3.8587   -1.6127   -0.9802 H   0  0  0  0  0  0  0  0  0  0  0  0
    1.6939   -1.8039    2.4014 H   0  0  0  0  0  0  0  0  0  0  0  0
    0.7786   -3.1754    1.7746 H   0  0  0  0  0  0  0  0  0  0  0  0
    2.3190   -2.8008    1.0618 H   0  0  0  0  0  0  0  0  0  0  0  0
   -2.5019   -2.9063    3.7915 H   0  0  0  0  0  0  0  0  0  0  0  0
   -2.1773   -4.1992    2.6192 H   0  0  0  0  0  0  0  0  0  0  0  0
   -3.4895   -3.0014    2.3196 H   0  0  0  0  0  0  0  0  0  0  0  0
   -1.5863   -1.2586   -1.6525 H   0  0  0  0  0  0  0  0  0  0  0  0
   -3.8555   -0.7325   -1.5277 H   0  0  0  0  0  0  0  0  0  0  0  0
   -5.7424    0.5186   -0.5537 H   0  0  0  0  0  0  0  0  0  0  0  0
   -5.3534    2.1536    1.2703 H   0  0  0  0  0  0  0  0  0  0  0  0
   -3.0561    2.5366    2.1234 H   0  0  0  0  0  0  0  0  0  0  0  0
   -1.1514    1.2983    1.1665 H   0  0  0  0  0  0  0  0  0  0  0  0
  1  2  1  0
  2  3  1  0
  3  4  2  0
  3  5  1  0
  5  6  2  0
  6  7  1  0
  6  8  1  0
  8  9  1  0
  9 10  2  0
 10 11  1  0
 11 12  2  0
 12 13  1  0
 13 14  2  0
  8 15  1  0
 15 16  1  0
 15 17  2  0
 17 18  1  0
 18 19  2  0
 18 20  1  0
 20 21  1  0
 17 22  1  0
 22 23  1  0
 23 24  2  0
 24 25  1  0
 25 26  2  0
 26 27  1  0
 27 28  2  0
 22  5  1  0
 28 23  1  0
 14  9  1  0
  1 29  1  0
  1 30  1  0
  1 31  1  0
  7 32  1  0
  7 33  1  0
  7 34  1  0
 10 35  1  0
 11 36  1  0
 12 37  1  0
 13 38  1  0
 14 39  1  0
 16 40  1  0
 16 41  1  0
 16 42  1  0
 21 43  1  0
 21 44  1  0
 21 45  1  0
 22 46  1  0
 24 47  1  0
 25 48  1  0
 26 49  1  0
 27 50  1  0
 28 51  1  0
M  END
$$$$
